
---------- Begin Simulation Statistics ----------
simSeconds                                   0.000000                       # Number of seconds simulated (Second)
simTicks                                        10000                       # Number of ticks simulated (Tick)
finalTick                                       10000                       # Number of ticks from beginning of simulation (restored from checkpoints and never reset) (Tick)
simFreq                                  1000000000000                       # The number of ticks per simulated second ((Tick/Second))
hostSeconds                                      0.21                       # Real time elapsed on the host (Second)
hostTickRate                                    48402                       # The number of ticks simulated per host second (ticks/s) ((Tick/Second))
hostMemory                                     726388                       # Number of bytes of host memory used (Byte)
system.clk_domain.clock                          1000                       # Clock period in ticks (Tick)
system.cpu0.power_state.pwrStateResidencyTicks::UNDEFINED        10000                       # Cumulative time (in ticks) in various power states (Tick)
system.cpu0.power_state.pwrStateResidencyTicks::ON        10000                       # Cumulative time (in ticks) in various power states (Tick)
system.cpu0.power_state.pwrStateResidencyTicks::CLK_GATED        10000                       # Cumulative time (in ticks) in various power states (Tick)
system.cpu0.power_state.pwrStateResidencyTicks::SRAM_RETENTION        10000                       # Cumulative time (in ticks) in various power states (Tick)
system.cpu0.power_state.pwrStateResidencyTicks::OFF        10000                       # Cumulative time (in ticks) in various power states (Tick)
system.cpu1.power_state.pwrStateResidencyTicks::UNDEFINED        10000                       # Cumulative time (in ticks) in various power states (Tick)
system.cpu1.power_state.pwrStateResidencyTicks::ON        10000                       # Cumulative time (in ticks) in various power states (Tick)
system.cpu1.power_state.pwrStateResidencyTicks::CLK_GATED        10000                       # Cumulative time (in ticks) in various power states (Tick)
system.cpu1.power_state.pwrStateResidencyTicks::SRAM_RETENTION        10000                       # Cumulative time (in ticks) in various power states (Tick)
system.cpu1.power_state.pwrStateResidencyTicks::OFF        10000                       # Cumulative time (in ticks) in various power states (Tick)
system.cpu10.power_state.pwrStateResidencyTicks::UNDEFINED        10000                       # Cumulative time (in ticks) in various power states (Tick)
system.cpu10.power_state.pwrStateResidencyTicks::ON        10000                       # Cumulative time (in ticks) in various power states (Tick)
system.cpu10.power_state.pwrStateResidencyTicks::CLK_GATED        10000                       # Cumulative time (in ticks) in various power states (Tick)
system.cpu10.power_state.pwrStateResidencyTicks::SRAM_RETENTION        10000                       # Cumulative time (in ticks) in various power states (Tick)
system.cpu10.power_state.pwrStateResidencyTicks::OFF        10000                       # Cumulative time (in ticks) in various power states (Tick)
system.cpu11.power_state.pwrStateResidencyTicks::UNDEFINED        10000                       # Cumulative time (in ticks) in various power states (Tick)
system.cpu11.power_state.pwrStateResidencyTicks::ON        10000                       # Cumulative time (in ticks) in various power states (Tick)
system.cpu11.power_state.pwrStateResidencyTicks::CLK_GATED        10000                       # Cumulative time (in ticks) in various power states (Tick)
system.cpu11.power_state.pwrStateResidencyTicks::SRAM_RETENTION        10000                       # Cumulative time (in ticks) in various power states (Tick)
system.cpu11.power_state.pwrStateResidencyTicks::OFF        10000                       # Cumulative time (in ticks) in various power states (Tick)
system.cpu12.power_state.pwrStateResidencyTicks::UNDEFINED        10000                       # Cumulative time (in ticks) in various power states (Tick)
system.cpu12.power_state.pwrStateResidencyTicks::ON        10000                       # Cumulative time (in ticks) in various power states (Tick)
system.cpu12.power_state.pwrStateResidencyTicks::CLK_GATED        10000                       # Cumulative time (in ticks) in various power states (Tick)
system.cpu12.power_state.pwrStateResidencyTicks::SRAM_RETENTION        10000                       # Cumulative time (in ticks) in various power states (Tick)
system.cpu12.power_state.pwrStateResidencyTicks::OFF        10000                       # Cumulative time (in ticks) in various power states (Tick)
system.cpu13.power_state.pwrStateResidencyTicks::UNDEFINED        10000                       # Cumulative time (in ticks) in various power states (Tick)
system.cpu13.power_state.pwrStateResidencyTicks::ON        10000                       # Cumulative time (in ticks) in various power states (Tick)
system.cpu13.power_state.pwrStateResidencyTicks::CLK_GATED        10000                       # Cumulative time (in ticks) in various power states (Tick)
system.cpu13.power_state.pwrStateResidencyTicks::SRAM_RETENTION        10000                       # Cumulative time (in ticks) in various power states (Tick)
system.cpu13.power_state.pwrStateResidencyTicks::OFF        10000                       # Cumulative time (in ticks) in various power states (Tick)
system.cpu14.power_state.pwrStateResidencyTicks::UNDEFINED        10000                       # Cumulative time (in ticks) in various power states (Tick)
system.cpu14.power_state.pwrStateResidencyTicks::ON        10000                       # Cumulative time (in ticks) in various power states (Tick)
system.cpu14.power_state.pwrStateResidencyTicks::CLK_GATED        10000                       # Cumulative time (in ticks) in various power states (Tick)
system.cpu14.power_state.pwrStateResidencyTicks::SRAM_RETENTION        10000                       # Cumulative time (in ticks) in various power states (Tick)
system.cpu14.power_state.pwrStateResidencyTicks::OFF        10000                       # Cumulative time (in ticks) in various power states (Tick)
system.cpu15.power_state.pwrStateResidencyTicks::UNDEFINED        10000                       # Cumulative time (in ticks) in various power states (Tick)
system.cpu15.power_state.pwrStateResidencyTicks::ON        10000                       # Cumulative time (in ticks) in various power states (Tick)
system.cpu15.power_state.pwrStateResidencyTicks::CLK_GATED        10000                       # Cumulative time (in ticks) in various power states (Tick)
system.cpu15.power_state.pwrStateResidencyTicks::SRAM_RETENTION        10000                       # Cumulative time (in ticks) in various power states (Tick)
system.cpu15.power_state.pwrStateResidencyTicks::OFF        10000                       # Cumulative time (in ticks) in various power states (Tick)
system.cpu2.power_state.pwrStateResidencyTicks::UNDEFINED        10000                       # Cumulative time (in ticks) in various power states (Tick)
system.cpu2.power_state.pwrStateResidencyTicks::ON        10000                       # Cumulative time (in ticks) in various power states (Tick)
system.cpu2.power_state.pwrStateResidencyTicks::CLK_GATED        10000                       # Cumulative time (in ticks) in various power states (Tick)
system.cpu2.power_state.pwrStateResidencyTicks::SRAM_RETENTION        10000                       # Cumulative time (in ticks) in various power states (Tick)
system.cpu2.power_state.pwrStateResidencyTicks::OFF        10000                       # Cumulative time (in ticks) in various power states (Tick)
system.cpu3.power_state.pwrStateResidencyTicks::UNDEFINED        10000                       # Cumulative time (in ticks) in various power states (Tick)
system.cpu3.power_state.pwrStateResidencyTicks::ON        10000                       # Cumulative time (in ticks) in various power states (Tick)
system.cpu3.power_state.pwrStateResidencyTicks::CLK_GATED        10000                       # Cumulative time (in ticks) in various power states (Tick)
system.cpu3.power_state.pwrStateResidencyTicks::SRAM_RETENTION        10000                       # Cumulative time (in ticks) in various power states (Tick)
system.cpu3.power_state.pwrStateResidencyTicks::OFF        10000                       # Cumulative time (in ticks) in various power states (Tick)
system.cpu4.power_state.pwrStateResidencyTicks::UNDEFINED        10000                       # Cumulative time (in ticks) in various power states (Tick)
system.cpu4.power_state.pwrStateResidencyTicks::ON        10000                       # Cumulative time (in ticks) in various power states (Tick)
system.cpu4.power_state.pwrStateResidencyTicks::CLK_GATED        10000                       # Cumulative time (in ticks) in various power states (Tick)
system.cpu4.power_state.pwrStateResidencyTicks::SRAM_RETENTION        10000                       # Cumulative time (in ticks) in various power states (Tick)
system.cpu4.power_state.pwrStateResidencyTicks::OFF        10000                       # Cumulative time (in ticks) in various power states (Tick)
system.cpu5.power_state.pwrStateResidencyTicks::UNDEFINED        10000                       # Cumulative time (in ticks) in various power states (Tick)
system.cpu5.power_state.pwrStateResidencyTicks::ON        10000                       # Cumulative time (in ticks) in various power states (Tick)
system.cpu5.power_state.pwrStateResidencyTicks::CLK_GATED        10000                       # Cumulative time (in ticks) in various power states (Tick)
system.cpu5.power_state.pwrStateResidencyTicks::SRAM_RETENTION        10000                       # Cumulative time (in ticks) in various power states (Tick)
system.cpu5.power_state.pwrStateResidencyTicks::OFF        10000                       # Cumulative time (in ticks) in various power states (Tick)
system.cpu6.power_state.pwrStateResidencyTicks::UNDEFINED        10000                       # Cumulative time (in ticks) in various power states (Tick)
system.cpu6.power_state.pwrStateResidencyTicks::ON        10000                       # Cumulative time (in ticks) in various power states (Tick)
system.cpu6.power_state.pwrStateResidencyTicks::CLK_GATED        10000                       # Cumulative time (in ticks) in various power states (Tick)
system.cpu6.power_state.pwrStateResidencyTicks::SRAM_RETENTION        10000                       # Cumulative time (in ticks) in various power states (Tick)
system.cpu6.power_state.pwrStateResidencyTicks::OFF        10000                       # Cumulative time (in ticks) in various power states (Tick)
system.cpu7.power_state.pwrStateResidencyTicks::UNDEFINED        10000                       # Cumulative time (in ticks) in various power states (Tick)
system.cpu7.power_state.pwrStateResidencyTicks::ON        10000                       # Cumulative time (in ticks) in various power states (Tick)
system.cpu7.power_state.pwrStateResidencyTicks::CLK_GATED        10000                       # Cumulative time (in ticks) in various power states (Tick)
system.cpu7.power_state.pwrStateResidencyTicks::SRAM_RETENTION        10000                       # Cumulative time (in ticks) in various power states (Tick)
system.cpu7.power_state.pwrStateResidencyTicks::OFF        10000                       # Cumulative time (in ticks) in various power states (Tick)
system.cpu8.power_state.pwrStateResidencyTicks::UNDEFINED        10000                       # Cumulative time (in ticks) in various power states (Tick)
system.cpu8.power_state.pwrStateResidencyTicks::ON        10000                       # Cumulative time (in ticks) in various power states (Tick)
system.cpu8.power_state.pwrStateResidencyTicks::CLK_GATED        10000                       # Cumulative time (in ticks) in various power states (Tick)
system.cpu8.power_state.pwrStateResidencyTicks::SRAM_RETENTION        10000                       # Cumulative time (in ticks) in various power states (Tick)
system.cpu8.power_state.pwrStateResidencyTicks::OFF        10000                       # Cumulative time (in ticks) in various power states (Tick)
system.cpu9.power_state.pwrStateResidencyTicks::UNDEFINED        10000                       # Cumulative time (in ticks) in various power states (Tick)
system.cpu9.power_state.pwrStateResidencyTicks::ON        10000                       # Cumulative time (in ticks) in various power states (Tick)
system.cpu9.power_state.pwrStateResidencyTicks::CLK_GATED        10000                       # Cumulative time (in ticks) in various power states (Tick)
system.cpu9.power_state.pwrStateResidencyTicks::SRAM_RETENTION        10000                       # Cumulative time (in ticks) in various power states (Tick)
system.cpu9.power_state.pwrStateResidencyTicks::OFF        10000                       # Cumulative time (in ticks) in various power states (Tick)
system.mem_ctrls0.priorityMinLatency     0.000000000000                       # per QoS priority minimum request to response latency (Second)
system.mem_ctrls0.priorityMaxLatency     0.000000000000                       # per QoS priority maximum request to response latency (Second)
system.mem_ctrls0.numReadWriteTurnArounds            0                       # Number of turnarounds from READ to WRITE (Count)
system.mem_ctrls0.numWriteReadTurnArounds            0                       # Number of turnarounds from WRITE to READ (Count)
system.mem_ctrls0.numStayReadState                  0                       # Number of times bus staying in READ state (Count)
system.mem_ctrls0.numStayWriteState                 0                       # Number of times bus staying in WRITE state (Count)
system.mem_ctrls0.readReqs                          0                       # Number of read requests accepted (Count)
system.mem_ctrls0.writeReqs                         0                       # Number of write requests accepted (Count)
system.mem_ctrls0.readBursts                        0                       # Number of controller read bursts, including those serviced by the write queue (Count)
system.mem_ctrls0.writeBursts                       0                       # Number of controller write bursts, including those merged in the write queue (Count)
system.mem_ctrls0.servicedByWrQ                     0                       # Number of controller read bursts serviced by the write queue (Count)
system.mem_ctrls0.mergedWrBursts                    0                       # Number of controller write bursts merged with an existing one (Count)
system.mem_ctrls0.neitherReadNorWriteReqs            0                       # Number of requests that are neither read nor write (Count)
system.mem_ctrls0.avgRdQLen                      0.00                       # Average read queue length when enqueuing ((Count/Tick))
system.mem_ctrls0.avgWrQLen                      0.00                       # Average write queue length when enqueuing ((Count/Tick))
system.mem_ctrls0.numRdRetry                        0                       # Number of times read queue was full causing retry (Count)
system.mem_ctrls0.numWrRetry                        0                       # Number of times write queue was full causing retry (Count)
system.mem_ctrls0.readPktSize::0                    0                       # Read request sizes (log2) (Count)
system.mem_ctrls0.readPktSize::1                    0                       # Read request sizes (log2) (Count)
system.mem_ctrls0.readPktSize::2                    0                       # Read request sizes (log2) (Count)
system.mem_ctrls0.readPktSize::3                    0                       # Read request sizes (log2) (Count)
system.mem_ctrls0.readPktSize::4                    0                       # Read request sizes (log2) (Count)
system.mem_ctrls0.readPktSize::5                    0                       # Read request sizes (log2) (Count)
system.mem_ctrls0.readPktSize::6                    0                       # Read request sizes (log2) (Count)
system.mem_ctrls0.writePktSize::0                   0                       # Write request sizes (log2) (Count)
system.mem_ctrls0.writePktSize::1                   0                       # Write request sizes (log2) (Count)
system.mem_ctrls0.writePktSize::2                   0                       # Write request sizes (log2) (Count)
system.mem_ctrls0.writePktSize::3                   0                       # Write request sizes (log2) (Count)
system.mem_ctrls0.writePktSize::4                   0                       # Write request sizes (log2) (Count)
system.mem_ctrls0.writePktSize::5                   0                       # Write request sizes (log2) (Count)
system.mem_ctrls0.writePktSize::6                   0                       # Write request sizes (log2) (Count)
system.mem_ctrls0.rdQLenPdf::0                      0                       # What read queue length does an incoming req see (Count)
system.mem_ctrls0.rdQLenPdf::1                      0                       # What read queue length does an incoming req see (Count)
system.mem_ctrls0.rdQLenPdf::2                      0                       # What read queue length does an incoming req see (Count)
system.mem_ctrls0.rdQLenPdf::3                      0                       # What read queue length does an incoming req see (Count)
system.mem_ctrls0.rdQLenPdf::4                      0                       # What read queue length does an incoming req see (Count)
system.mem_ctrls0.rdQLenPdf::5                      0                       # What read queue length does an incoming req see (Count)
system.mem_ctrls0.rdQLenPdf::6                      0                       # What read queue length does an incoming req see (Count)
system.mem_ctrls0.rdQLenPdf::7                      0                       # What read queue length does an incoming req see (Count)
system.mem_ctrls0.rdQLenPdf::8                      0                       # What read queue length does an incoming req see (Count)
system.mem_ctrls0.rdQLenPdf::9                      0                       # What read queue length does an incoming req see (Count)
system.mem_ctrls0.rdQLenPdf::10                     0                       # What read queue length does an incoming req see (Count)
system.mem_ctrls0.rdQLenPdf::11                     0                       # What read queue length does an incoming req see (Count)
system.mem_ctrls0.rdQLenPdf::12                     0                       # What read queue length does an incoming req see (Count)
system.mem_ctrls0.rdQLenPdf::13                     0                       # What read queue length does an incoming req see (Count)
system.mem_ctrls0.rdQLenPdf::14                     0                       # What read queue length does an incoming req see (Count)
system.mem_ctrls0.rdQLenPdf::15                     0                       # What read queue length does an incoming req see (Count)
system.mem_ctrls0.rdQLenPdf::16                     0                       # What read queue length does an incoming req see (Count)
system.mem_ctrls0.rdQLenPdf::17                     0                       # What read queue length does an incoming req see (Count)
system.mem_ctrls0.rdQLenPdf::18                     0                       # What read queue length does an incoming req see (Count)
system.mem_ctrls0.rdQLenPdf::19                     0                       # What read queue length does an incoming req see (Count)
system.mem_ctrls0.rdQLenPdf::20                     0                       # What read queue length does an incoming req see (Count)
system.mem_ctrls0.rdQLenPdf::21                     0                       # What read queue length does an incoming req see (Count)
system.mem_ctrls0.rdQLenPdf::22                     0                       # What read queue length does an incoming req see (Count)
system.mem_ctrls0.rdQLenPdf::23                     0                       # What read queue length does an incoming req see (Count)
system.mem_ctrls0.rdQLenPdf::24                     0                       # What read queue length does an incoming req see (Count)
system.mem_ctrls0.rdQLenPdf::25                     0                       # What read queue length does an incoming req see (Count)
system.mem_ctrls0.rdQLenPdf::26                     0                       # What read queue length does an incoming req see (Count)
system.mem_ctrls0.rdQLenPdf::27                     0                       # What read queue length does an incoming req see (Count)
system.mem_ctrls0.rdQLenPdf::28                     0                       # What read queue length does an incoming req see (Count)
system.mem_ctrls0.rdQLenPdf::29                     0                       # What read queue length does an incoming req see (Count)
system.mem_ctrls0.rdQLenPdf::30                     0                       # What read queue length does an incoming req see (Count)
system.mem_ctrls0.rdQLenPdf::31                     0                       # What read queue length does an incoming req see (Count)
system.mem_ctrls0.wrQLenPdf::0                      0                       # What write queue length does an incoming req see (Count)
system.mem_ctrls0.wrQLenPdf::1                      0                       # What write queue length does an incoming req see (Count)
system.mem_ctrls0.wrQLenPdf::2                      0                       # What write queue length does an incoming req see (Count)
system.mem_ctrls0.wrQLenPdf::3                      0                       # What write queue length does an incoming req see (Count)
system.mem_ctrls0.wrQLenPdf::4                      0                       # What write queue length does an incoming req see (Count)
system.mem_ctrls0.wrQLenPdf::5                      0                       # What write queue length does an incoming req see (Count)
system.mem_ctrls0.wrQLenPdf::6                      0                       # What write queue length does an incoming req see (Count)
system.mem_ctrls0.wrQLenPdf::7                      0                       # What write queue length does an incoming req see (Count)
system.mem_ctrls0.wrQLenPdf::8                      0                       # What write queue length does an incoming req see (Count)
system.mem_ctrls0.wrQLenPdf::9                      0                       # What write queue length does an incoming req see (Count)
system.mem_ctrls0.wrQLenPdf::10                     0                       # What write queue length does an incoming req see (Count)
system.mem_ctrls0.wrQLenPdf::11                     0                       # What write queue length does an incoming req see (Count)
system.mem_ctrls0.wrQLenPdf::12                     0                       # What write queue length does an incoming req see (Count)
system.mem_ctrls0.wrQLenPdf::13                     0                       # What write queue length does an incoming req see (Count)
system.mem_ctrls0.wrQLenPdf::14                     0                       # What write queue length does an incoming req see (Count)
system.mem_ctrls0.wrQLenPdf::15                     0                       # What write queue length does an incoming req see (Count)
system.mem_ctrls0.wrQLenPdf::16                     0                       # What write queue length does an incoming req see (Count)
system.mem_ctrls0.wrQLenPdf::17                     0                       # What write queue length does an incoming req see (Count)
system.mem_ctrls0.wrQLenPdf::18                     0                       # What write queue length does an incoming req see (Count)
system.mem_ctrls0.wrQLenPdf::19                     0                       # What write queue length does an incoming req see (Count)
system.mem_ctrls0.wrQLenPdf::20                     0                       # What write queue length does an incoming req see (Count)
system.mem_ctrls0.wrQLenPdf::21                     0                       # What write queue length does an incoming req see (Count)
system.mem_ctrls0.wrQLenPdf::22                     0                       # What write queue length does an incoming req see (Count)
system.mem_ctrls0.wrQLenPdf::23                     0                       # What write queue length does an incoming req see (Count)
system.mem_ctrls0.wrQLenPdf::24                     0                       # What write queue length does an incoming req see (Count)
system.mem_ctrls0.wrQLenPdf::25                     0                       # What write queue length does an incoming req see (Count)
system.mem_ctrls0.wrQLenPdf::26                     0                       # What write queue length does an incoming req see (Count)
system.mem_ctrls0.wrQLenPdf::27                     0                       # What write queue length does an incoming req see (Count)
system.mem_ctrls0.wrQLenPdf::28                     0                       # What write queue length does an incoming req see (Count)
system.mem_ctrls0.wrQLenPdf::29                     0                       # What write queue length does an incoming req see (Count)
system.mem_ctrls0.wrQLenPdf::30                     0                       # What write queue length does an incoming req see (Count)
system.mem_ctrls0.wrQLenPdf::31                     0                       # What write queue length does an incoming req see (Count)
system.mem_ctrls0.wrQLenPdf::32                     0                       # What write queue length does an incoming req see (Count)
system.mem_ctrls0.wrQLenPdf::33                     0                       # What write queue length does an incoming req see (Count)
system.mem_ctrls0.wrQLenPdf::34                     0                       # What write queue length does an incoming req see (Count)
system.mem_ctrls0.wrQLenPdf::35                     0                       # What write queue length does an incoming req see (Count)
system.mem_ctrls0.wrQLenPdf::36                     0                       # What write queue length does an incoming req see (Count)
system.mem_ctrls0.wrQLenPdf::37                     0                       # What write queue length does an incoming req see (Count)
system.mem_ctrls0.wrQLenPdf::38                     0                       # What write queue length does an incoming req see (Count)
system.mem_ctrls0.wrQLenPdf::39                     0                       # What write queue length does an incoming req see (Count)
system.mem_ctrls0.wrQLenPdf::40                     0                       # What write queue length does an incoming req see (Count)
system.mem_ctrls0.wrQLenPdf::41                     0                       # What write queue length does an incoming req see (Count)
system.mem_ctrls0.wrQLenPdf::42                     0                       # What write queue length does an incoming req see (Count)
system.mem_ctrls0.wrQLenPdf::43                     0                       # What write queue length does an incoming req see (Count)
system.mem_ctrls0.wrQLenPdf::44                     0                       # What write queue length does an incoming req see (Count)
system.mem_ctrls0.wrQLenPdf::45                     0                       # What write queue length does an incoming req see (Count)
system.mem_ctrls0.wrQLenPdf::46                     0                       # What write queue length does an incoming req see (Count)
system.mem_ctrls0.wrQLenPdf::47                     0                       # What write queue length does an incoming req see (Count)
system.mem_ctrls0.wrQLenPdf::48                     0                       # What write queue length does an incoming req see (Count)
system.mem_ctrls0.wrQLenPdf::49                     0                       # What write queue length does an incoming req see (Count)
system.mem_ctrls0.wrQLenPdf::50                     0                       # What write queue length does an incoming req see (Count)
system.mem_ctrls0.wrQLenPdf::51                     0                       # What write queue length does an incoming req see (Count)
system.mem_ctrls0.wrQLenPdf::52                     0                       # What write queue length does an incoming req see (Count)
system.mem_ctrls0.wrQLenPdf::53                     0                       # What write queue length does an incoming req see (Count)
system.mem_ctrls0.wrQLenPdf::54                     0                       # What write queue length does an incoming req see (Count)
system.mem_ctrls0.wrQLenPdf::55                     0                       # What write queue length does an incoming req see (Count)
system.mem_ctrls0.wrQLenPdf::56                     0                       # What write queue length does an incoming req see (Count)
system.mem_ctrls0.wrQLenPdf::57                     0                       # What write queue length does an incoming req see (Count)
system.mem_ctrls0.wrQLenPdf::58                     0                       # What write queue length does an incoming req see (Count)
system.mem_ctrls0.wrQLenPdf::59                     0                       # What write queue length does an incoming req see (Count)
system.mem_ctrls0.wrQLenPdf::60                     0                       # What write queue length does an incoming req see (Count)
system.mem_ctrls0.wrQLenPdf::61                     0                       # What write queue length does an incoming req see (Count)
system.mem_ctrls0.wrQLenPdf::62                     0                       # What write queue length does an incoming req see (Count)
system.mem_ctrls0.wrQLenPdf::63                     0                       # What write queue length does an incoming req see (Count)
system.mem_ctrls0.bytesReadWrQ                      0                       # Total number of bytes read from write queue (Byte)
system.mem_ctrls0.bytesReadSys                      0                       # Total read bytes from the system interface side (Byte)
system.mem_ctrls0.bytesWrittenSys                   0                       # Total written bytes from the system interface side (Byte)
system.mem_ctrls0.avgRdBWSys               0.00000000                       # Average system read bandwidth in Byte/s ((Byte/Second))
system.mem_ctrls0.avgWrBWSys               0.00000000                       # Average system write bandwidth in Byte/s ((Byte/Second))
system.mem_ctrls0.totGap                            0                       # Total gap between requests (Tick)
system.mem_ctrls0.avgGap                          nan                       # Average gap between requests ((Tick/Count))
system.mem_ctrls0.dram.readBursts                   0                       # Number of DRAM read bursts (Count)
system.mem_ctrls0.dram.writeBursts                  0                       # Number of DRAM write bursts (Count)
system.mem_ctrls0.dram.perBankRdBursts::0            0                       # Per bank write bursts (Count)
system.mem_ctrls0.dram.perBankRdBursts::1            0                       # Per bank write bursts (Count)
system.mem_ctrls0.dram.perBankRdBursts::2            0                       # Per bank write bursts (Count)
system.mem_ctrls0.dram.perBankRdBursts::3            0                       # Per bank write bursts (Count)
system.mem_ctrls0.dram.perBankRdBursts::4            0                       # Per bank write bursts (Count)
system.mem_ctrls0.dram.perBankRdBursts::5            0                       # Per bank write bursts (Count)
system.mem_ctrls0.dram.perBankRdBursts::6            0                       # Per bank write bursts (Count)
system.mem_ctrls0.dram.perBankRdBursts::7            0                       # Per bank write bursts (Count)
system.mem_ctrls0.dram.perBankRdBursts::8            0                       # Per bank write bursts (Count)
system.mem_ctrls0.dram.perBankRdBursts::9            0                       # Per bank write bursts (Count)
system.mem_ctrls0.dram.perBankRdBursts::10            0                       # Per bank write bursts (Count)
system.mem_ctrls0.dram.perBankRdBursts::11            0                       # Per bank write bursts (Count)
system.mem_ctrls0.dram.perBankRdBursts::12            0                       # Per bank write bursts (Count)
system.mem_ctrls0.dram.perBankRdBursts::13            0                       # Per bank write bursts (Count)
system.mem_ctrls0.dram.perBankRdBursts::14            0                       # Per bank write bursts (Count)
system.mem_ctrls0.dram.perBankRdBursts::15            0                       # Per bank write bursts (Count)
system.mem_ctrls0.dram.perBankWrBursts::0            0                       # Per bank write bursts (Count)
system.mem_ctrls0.dram.perBankWrBursts::1            0                       # Per bank write bursts (Count)
system.mem_ctrls0.dram.perBankWrBursts::2            0                       # Per bank write bursts (Count)
system.mem_ctrls0.dram.perBankWrBursts::3            0                       # Per bank write bursts (Count)
system.mem_ctrls0.dram.perBankWrBursts::4            0                       # Per bank write bursts (Count)
system.mem_ctrls0.dram.perBankWrBursts::5            0                       # Per bank write bursts (Count)
system.mem_ctrls0.dram.perBankWrBursts::6            0                       # Per bank write bursts (Count)
system.mem_ctrls0.dram.perBankWrBursts::7            0                       # Per bank write bursts (Count)
system.mem_ctrls0.dram.perBankWrBursts::8            0                       # Per bank write bursts (Count)
system.mem_ctrls0.dram.perBankWrBursts::9            0                       # Per bank write bursts (Count)
system.mem_ctrls0.dram.perBankWrBursts::10            0                       # Per bank write bursts (Count)
system.mem_ctrls0.dram.perBankWrBursts::11            0                       # Per bank write bursts (Count)
system.mem_ctrls0.dram.perBankWrBursts::12            0                       # Per bank write bursts (Count)
system.mem_ctrls0.dram.perBankWrBursts::13            0                       # Per bank write bursts (Count)
system.mem_ctrls0.dram.perBankWrBursts::14            0                       # Per bank write bursts (Count)
system.mem_ctrls0.dram.perBankWrBursts::15            0                       # Per bank write bursts (Count)
system.mem_ctrls0.dram.totQLat                      0                       # Total ticks spent queuing (Tick)
system.mem_ctrls0.dram.totBusLat                    0                       # Total ticks spent in databus transfers (Tick)
system.mem_ctrls0.dram.totMemAccLat                 0                       # Total ticks spent from burst creation until serviced by the DRAM (Tick)
system.mem_ctrls0.dram.avgQLat                    nan                       # Average queueing delay per DRAM burst ((Tick/Count))
system.mem_ctrls0.dram.avgBusLat                  nan                       # Average bus latency per DRAM burst ((Tick/Count))
system.mem_ctrls0.dram.avgMemAccLat               nan                       # Average memory access latency per DRAM burst ((Tick/Count))
system.mem_ctrls0.dram.readRowHits                  0                       # Number of row buffer hits during reads (Count)
system.mem_ctrls0.dram.writeRowHits                 0                       # Number of row buffer hits during writes (Count)
system.mem_ctrls0.dram.readRowHitRate             nan                       # Row buffer hit rate for reads (Ratio)
system.mem_ctrls0.dram.writeRowHitRate            nan                       # Row buffer hit rate for writes (Ratio)
system.mem_ctrls0.dram.bytesRead                    0                       # Total number of bytes read from DRAM (Byte)
system.mem_ctrls0.dram.bytesWritten                 0                       # Total number of bytes written to DRAM (Byte)
system.mem_ctrls0.dram.avgRdBW                      0                       # Average DRAM read bandwidth in MiBytes/s ((Byte/Second))
system.mem_ctrls0.dram.avgWrBW                      0                       # Average DRAM write bandwidth in MiBytes/s ((Byte/Second))
system.mem_ctrls0.dram.peakBW                12800.00                       # Theoretical peak bandwidth in MiByte/s ((Byte/Second))
system.mem_ctrls0.dram.busUtil                   0.00                       # Data bus utilization in percentage (Ratio)
system.mem_ctrls0.dram.busUtilRead               0.00                       # Data bus utilization in percentage for reads (Ratio)
system.mem_ctrls0.dram.busUtilWrite              0.00                       # Data bus utilization in percentage for writes (Ratio)
system.mem_ctrls0.dram.pageHitRate                nan                       # Row buffer hit rate, read and write combined (Ratio)
system.mem_ctrls0.dram.power_state.pwrStateResidencyTicks::UNDEFINED        10000                       # Cumulative time (in ticks) in various power states (Tick)
system.mem_ctrls0.dram.power_state.pwrStateResidencyTicks::ON        10000                       # Cumulative time (in ticks) in various power states (Tick)
system.mem_ctrls0.dram.power_state.pwrStateResidencyTicks::CLK_GATED        10000                       # Cumulative time (in ticks) in various power states (Tick)
system.mem_ctrls0.dram.power_state.pwrStateResidencyTicks::SRAM_RETENTION        10000                       # Cumulative time (in ticks) in various power states (Tick)
system.mem_ctrls0.dram.power_state.pwrStateResidencyTicks::OFF        10000                       # Cumulative time (in ticks) in various power states (Tick)
system.mem_ctrls0.dram.rank0.actEnergy              0                       # Energy for activate commands per rank (pJ) (Joule)
system.mem_ctrls0.dram.rank0.preEnergy              0                       # Energy for precharge commands per rank (pJ) (Joule)
system.mem_ctrls0.dram.rank0.readEnergy             0                       # Energy for read commands per rank (pJ) (Joule)
system.mem_ctrls0.dram.rank0.writeEnergy            0                       # Energy for write commands per rank (pJ) (Joule)
system.mem_ctrls0.dram.rank0.refreshEnergy            0                       # Energy for refresh commands per rank (pJ) (Joule)
system.mem_ctrls0.dram.rank0.actBackEnergy            0                       # Energy for active background per rank (pJ) (Joule)
system.mem_ctrls0.dram.rank0.preBackEnergy         3840                       # Energy for precharge background per rank (pJ) (Joule)
system.mem_ctrls0.dram.rank0.actPowerDownEnergy            0                       # Energy for active power-down per rank (pJ) (Joule)
system.mem_ctrls0.dram.rank0.prePowerDownEnergy            0                       # Energy for precharge power-down per rank (pJ) (Joule)
system.mem_ctrls0.dram.rank0.selfRefreshEnergy            0                       # Energy for self refresh per rank (pJ) (Joule)
system.mem_ctrls0.dram.rank0.totalEnergy         3840                       # Total energy per rank (pJ) (Joule)
system.mem_ctrls0.dram.rank0.averagePower          384                       # Core power per rank (mW) (Watt)
system.mem_ctrls0.dram.rank0.totalIdleTime            0                       # Total Idle time Per DRAM Rank (Tick)
system.mem_ctrls0.dram.rank0.pwrStateTime::IDLE        10000                       # Time in different power states (Tick)
system.mem_ctrls0.dram.rank0.pwrStateTime::REF        10000                       # Time in different power states (Tick)
system.mem_ctrls0.dram.rank0.pwrStateTime::SREF        10000                       # Time in different power states (Tick)
system.mem_ctrls0.dram.rank0.pwrStateTime::PRE_PDN        10000                       # Time in different power states (Tick)
system.mem_ctrls0.dram.rank0.pwrStateTime::ACT        10000                       # Time in different power states (Tick)
system.mem_ctrls0.dram.rank0.pwrStateTime::ACT_PDN        10000                       # Time in different power states (Tick)
system.mem_ctrls0.dram.rank1.actEnergy              0                       # Energy for activate commands per rank (pJ) (Joule)
system.mem_ctrls0.dram.rank1.preEnergy              0                       # Energy for precharge commands per rank (pJ) (Joule)
system.mem_ctrls0.dram.rank1.readEnergy             0                       # Energy for read commands per rank (pJ) (Joule)
system.mem_ctrls0.dram.rank1.writeEnergy            0                       # Energy for write commands per rank (pJ) (Joule)
system.mem_ctrls0.dram.rank1.refreshEnergy            0                       # Energy for refresh commands per rank (pJ) (Joule)
system.mem_ctrls0.dram.rank1.actBackEnergy            0                       # Energy for active background per rank (pJ) (Joule)
system.mem_ctrls0.dram.rank1.preBackEnergy         3840                       # Energy for precharge background per rank (pJ) (Joule)
system.mem_ctrls0.dram.rank1.actPowerDownEnergy            0                       # Energy for active power-down per rank (pJ) (Joule)
system.mem_ctrls0.dram.rank1.prePowerDownEnergy            0                       # Energy for precharge power-down per rank (pJ) (Joule)
system.mem_ctrls0.dram.rank1.selfRefreshEnergy            0                       # Energy for self refresh per rank (pJ) (Joule)
system.mem_ctrls0.dram.rank1.totalEnergy         3840                       # Total energy per rank (pJ) (Joule)
system.mem_ctrls0.dram.rank1.averagePower          384                       # Core power per rank (mW) (Watt)
system.mem_ctrls0.dram.rank1.totalIdleTime            0                       # Total Idle time Per DRAM Rank (Tick)
system.mem_ctrls0.dram.rank1.pwrStateTime::IDLE        10000                       # Time in different power states (Tick)
system.mem_ctrls0.dram.rank1.pwrStateTime::REF        10000                       # Time in different power states (Tick)
system.mem_ctrls0.dram.rank1.pwrStateTime::SREF        10000                       # Time in different power states (Tick)
system.mem_ctrls0.dram.rank1.pwrStateTime::PRE_PDN        10000                       # Time in different power states (Tick)
system.mem_ctrls0.dram.rank1.pwrStateTime::ACT        10000                       # Time in different power states (Tick)
system.mem_ctrls0.dram.rank1.pwrStateTime::ACT_PDN        10000                       # Time in different power states (Tick)
system.mem_ctrls0.power_state.pwrStateResidencyTicks::UNDEFINED        10000                       # Cumulative time (in ticks) in various power states (Tick)
system.mem_ctrls0.power_state.pwrStateResidencyTicks::ON        10000                       # Cumulative time (in ticks) in various power states (Tick)
system.mem_ctrls0.power_state.pwrStateResidencyTicks::CLK_GATED        10000                       # Cumulative time (in ticks) in various power states (Tick)
system.mem_ctrls0.power_state.pwrStateResidencyTicks::SRAM_RETENTION        10000                       # Cumulative time (in ticks) in various power states (Tick)
system.mem_ctrls0.power_state.pwrStateResidencyTicks::OFF        10000                       # Cumulative time (in ticks) in various power states (Tick)
system.mem_ctrls1.priorityMinLatency     0.000000000000                       # per QoS priority minimum request to response latency (Second)
system.mem_ctrls1.priorityMaxLatency     0.000000000000                       # per QoS priority maximum request to response latency (Second)
system.mem_ctrls1.numReadWriteTurnArounds            0                       # Number of turnarounds from READ to WRITE (Count)
system.mem_ctrls1.numWriteReadTurnArounds            0                       # Number of turnarounds from WRITE to READ (Count)
system.mem_ctrls1.numStayReadState                  0                       # Number of times bus staying in READ state (Count)
system.mem_ctrls1.numStayWriteState                 0                       # Number of times bus staying in WRITE state (Count)
system.mem_ctrls1.readReqs                          0                       # Number of read requests accepted (Count)
system.mem_ctrls1.writeReqs                         0                       # Number of write requests accepted (Count)
system.mem_ctrls1.readBursts                        0                       # Number of controller read bursts, including those serviced by the write queue (Count)
system.mem_ctrls1.writeBursts                       0                       # Number of controller write bursts, including those merged in the write queue (Count)
system.mem_ctrls1.servicedByWrQ                     0                       # Number of controller read bursts serviced by the write queue (Count)
system.mem_ctrls1.mergedWrBursts                    0                       # Number of controller write bursts merged with an existing one (Count)
system.mem_ctrls1.neitherReadNorWriteReqs            0                       # Number of requests that are neither read nor write (Count)
system.mem_ctrls1.avgRdQLen                      0.00                       # Average read queue length when enqueuing ((Count/Tick))
system.mem_ctrls1.avgWrQLen                      0.00                       # Average write queue length when enqueuing ((Count/Tick))
system.mem_ctrls1.numRdRetry                        0                       # Number of times read queue was full causing retry (Count)
system.mem_ctrls1.numWrRetry                        0                       # Number of times write queue was full causing retry (Count)
system.mem_ctrls1.readPktSize::0                    0                       # Read request sizes (log2) (Count)
system.mem_ctrls1.readPktSize::1                    0                       # Read request sizes (log2) (Count)
system.mem_ctrls1.readPktSize::2                    0                       # Read request sizes (log2) (Count)
system.mem_ctrls1.readPktSize::3                    0                       # Read request sizes (log2) (Count)
system.mem_ctrls1.readPktSize::4                    0                       # Read request sizes (log2) (Count)
system.mem_ctrls1.readPktSize::5                    0                       # Read request sizes (log2) (Count)
system.mem_ctrls1.readPktSize::6                    0                       # Read request sizes (log2) (Count)
system.mem_ctrls1.writePktSize::0                   0                       # Write request sizes (log2) (Count)
system.mem_ctrls1.writePktSize::1                   0                       # Write request sizes (log2) (Count)
system.mem_ctrls1.writePktSize::2                   0                       # Write request sizes (log2) (Count)
system.mem_ctrls1.writePktSize::3                   0                       # Write request sizes (log2) (Count)
system.mem_ctrls1.writePktSize::4                   0                       # Write request sizes (log2) (Count)
system.mem_ctrls1.writePktSize::5                   0                       # Write request sizes (log2) (Count)
system.mem_ctrls1.writePktSize::6                   0                       # Write request sizes (log2) (Count)
system.mem_ctrls1.rdQLenPdf::0                      0                       # What read queue length does an incoming req see (Count)
system.mem_ctrls1.rdQLenPdf::1                      0                       # What read queue length does an incoming req see (Count)
system.mem_ctrls1.rdQLenPdf::2                      0                       # What read queue length does an incoming req see (Count)
system.mem_ctrls1.rdQLenPdf::3                      0                       # What read queue length does an incoming req see (Count)
system.mem_ctrls1.rdQLenPdf::4                      0                       # What read queue length does an incoming req see (Count)
system.mem_ctrls1.rdQLenPdf::5                      0                       # What read queue length does an incoming req see (Count)
system.mem_ctrls1.rdQLenPdf::6                      0                       # What read queue length does an incoming req see (Count)
system.mem_ctrls1.rdQLenPdf::7                      0                       # What read queue length does an incoming req see (Count)
system.mem_ctrls1.rdQLenPdf::8                      0                       # What read queue length does an incoming req see (Count)
system.mem_ctrls1.rdQLenPdf::9                      0                       # What read queue length does an incoming req see (Count)
system.mem_ctrls1.rdQLenPdf::10                     0                       # What read queue length does an incoming req see (Count)
system.mem_ctrls1.rdQLenPdf::11                     0                       # What read queue length does an incoming req see (Count)
system.mem_ctrls1.rdQLenPdf::12                     0                       # What read queue length does an incoming req see (Count)
system.mem_ctrls1.rdQLenPdf::13                     0                       # What read queue length does an incoming req see (Count)
system.mem_ctrls1.rdQLenPdf::14                     0                       # What read queue length does an incoming req see (Count)
system.mem_ctrls1.rdQLenPdf::15                     0                       # What read queue length does an incoming req see (Count)
system.mem_ctrls1.rdQLenPdf::16                     0                       # What read queue length does an incoming req see (Count)
system.mem_ctrls1.rdQLenPdf::17                     0                       # What read queue length does an incoming req see (Count)
system.mem_ctrls1.rdQLenPdf::18                     0                       # What read queue length does an incoming req see (Count)
system.mem_ctrls1.rdQLenPdf::19                     0                       # What read queue length does an incoming req see (Count)
system.mem_ctrls1.rdQLenPdf::20                     0                       # What read queue length does an incoming req see (Count)
system.mem_ctrls1.rdQLenPdf::21                     0                       # What read queue length does an incoming req see (Count)
system.mem_ctrls1.rdQLenPdf::22                     0                       # What read queue length does an incoming req see (Count)
system.mem_ctrls1.rdQLenPdf::23                     0                       # What read queue length does an incoming req see (Count)
system.mem_ctrls1.rdQLenPdf::24                     0                       # What read queue length does an incoming req see (Count)
system.mem_ctrls1.rdQLenPdf::25                     0                       # What read queue length does an incoming req see (Count)
system.mem_ctrls1.rdQLenPdf::26                     0                       # What read queue length does an incoming req see (Count)
system.mem_ctrls1.rdQLenPdf::27                     0                       # What read queue length does an incoming req see (Count)
system.mem_ctrls1.rdQLenPdf::28                     0                       # What read queue length does an incoming req see (Count)
system.mem_ctrls1.rdQLenPdf::29                     0                       # What read queue length does an incoming req see (Count)
system.mem_ctrls1.rdQLenPdf::30                     0                       # What read queue length does an incoming req see (Count)
system.mem_ctrls1.rdQLenPdf::31                     0                       # What read queue length does an incoming req see (Count)
system.mem_ctrls1.wrQLenPdf::0                      0                       # What write queue length does an incoming req see (Count)
system.mem_ctrls1.wrQLenPdf::1                      0                       # What write queue length does an incoming req see (Count)
system.mem_ctrls1.wrQLenPdf::2                      0                       # What write queue length does an incoming req see (Count)
system.mem_ctrls1.wrQLenPdf::3                      0                       # What write queue length does an incoming req see (Count)
system.mem_ctrls1.wrQLenPdf::4                      0                       # What write queue length does an incoming req see (Count)
system.mem_ctrls1.wrQLenPdf::5                      0                       # What write queue length does an incoming req see (Count)
system.mem_ctrls1.wrQLenPdf::6                      0                       # What write queue length does an incoming req see (Count)
system.mem_ctrls1.wrQLenPdf::7                      0                       # What write queue length does an incoming req see (Count)
system.mem_ctrls1.wrQLenPdf::8                      0                       # What write queue length does an incoming req see (Count)
system.mem_ctrls1.wrQLenPdf::9                      0                       # What write queue length does an incoming req see (Count)
system.mem_ctrls1.wrQLenPdf::10                     0                       # What write queue length does an incoming req see (Count)
system.mem_ctrls1.wrQLenPdf::11                     0                       # What write queue length does an incoming req see (Count)
system.mem_ctrls1.wrQLenPdf::12                     0                       # What write queue length does an incoming req see (Count)
system.mem_ctrls1.wrQLenPdf::13                     0                       # What write queue length does an incoming req see (Count)
system.mem_ctrls1.wrQLenPdf::14                     0                       # What write queue length does an incoming req see (Count)
system.mem_ctrls1.wrQLenPdf::15                     0                       # What write queue length does an incoming req see (Count)
system.mem_ctrls1.wrQLenPdf::16                     0                       # What write queue length does an incoming req see (Count)
system.mem_ctrls1.wrQLenPdf::17                     0                       # What write queue length does an incoming req see (Count)
system.mem_ctrls1.wrQLenPdf::18                     0                       # What write queue length does an incoming req see (Count)
system.mem_ctrls1.wrQLenPdf::19                     0                       # What write queue length does an incoming req see (Count)
system.mem_ctrls1.wrQLenPdf::20                     0                       # What write queue length does an incoming req see (Count)
system.mem_ctrls1.wrQLenPdf::21                     0                       # What write queue length does an incoming req see (Count)
system.mem_ctrls1.wrQLenPdf::22                     0                       # What write queue length does an incoming req see (Count)
system.mem_ctrls1.wrQLenPdf::23                     0                       # What write queue length does an incoming req see (Count)
system.mem_ctrls1.wrQLenPdf::24                     0                       # What write queue length does an incoming req see (Count)
system.mem_ctrls1.wrQLenPdf::25                     0                       # What write queue length does an incoming req see (Count)
system.mem_ctrls1.wrQLenPdf::26                     0                       # What write queue length does an incoming req see (Count)
system.mem_ctrls1.wrQLenPdf::27                     0                       # What write queue length does an incoming req see (Count)
system.mem_ctrls1.wrQLenPdf::28                     0                       # What write queue length does an incoming req see (Count)
system.mem_ctrls1.wrQLenPdf::29                     0                       # What write queue length does an incoming req see (Count)
system.mem_ctrls1.wrQLenPdf::30                     0                       # What write queue length does an incoming req see (Count)
system.mem_ctrls1.wrQLenPdf::31                     0                       # What write queue length does an incoming req see (Count)
system.mem_ctrls1.wrQLenPdf::32                     0                       # What write queue length does an incoming req see (Count)
system.mem_ctrls1.wrQLenPdf::33                     0                       # What write queue length does an incoming req see (Count)
system.mem_ctrls1.wrQLenPdf::34                     0                       # What write queue length does an incoming req see (Count)
system.mem_ctrls1.wrQLenPdf::35                     0                       # What write queue length does an incoming req see (Count)
system.mem_ctrls1.wrQLenPdf::36                     0                       # What write queue length does an incoming req see (Count)
system.mem_ctrls1.wrQLenPdf::37                     0                       # What write queue length does an incoming req see (Count)
system.mem_ctrls1.wrQLenPdf::38                     0                       # What write queue length does an incoming req see (Count)
system.mem_ctrls1.wrQLenPdf::39                     0                       # What write queue length does an incoming req see (Count)
system.mem_ctrls1.wrQLenPdf::40                     0                       # What write queue length does an incoming req see (Count)
system.mem_ctrls1.wrQLenPdf::41                     0                       # What write queue length does an incoming req see (Count)
system.mem_ctrls1.wrQLenPdf::42                     0                       # What write queue length does an incoming req see (Count)
system.mem_ctrls1.wrQLenPdf::43                     0                       # What write queue length does an incoming req see (Count)
system.mem_ctrls1.wrQLenPdf::44                     0                       # What write queue length does an incoming req see (Count)
system.mem_ctrls1.wrQLenPdf::45                     0                       # What write queue length does an incoming req see (Count)
system.mem_ctrls1.wrQLenPdf::46                     0                       # What write queue length does an incoming req see (Count)
system.mem_ctrls1.wrQLenPdf::47                     0                       # What write queue length does an incoming req see (Count)
system.mem_ctrls1.wrQLenPdf::48                     0                       # What write queue length does an incoming req see (Count)
system.mem_ctrls1.wrQLenPdf::49                     0                       # What write queue length does an incoming req see (Count)
system.mem_ctrls1.wrQLenPdf::50                     0                       # What write queue length does an incoming req see (Count)
system.mem_ctrls1.wrQLenPdf::51                     0                       # What write queue length does an incoming req see (Count)
system.mem_ctrls1.wrQLenPdf::52                     0                       # What write queue length does an incoming req see (Count)
system.mem_ctrls1.wrQLenPdf::53                     0                       # What write queue length does an incoming req see (Count)
system.mem_ctrls1.wrQLenPdf::54                     0                       # What write queue length does an incoming req see (Count)
system.mem_ctrls1.wrQLenPdf::55                     0                       # What write queue length does an incoming req see (Count)
system.mem_ctrls1.wrQLenPdf::56                     0                       # What write queue length does an incoming req see (Count)
system.mem_ctrls1.wrQLenPdf::57                     0                       # What write queue length does an incoming req see (Count)
system.mem_ctrls1.wrQLenPdf::58                     0                       # What write queue length does an incoming req see (Count)
system.mem_ctrls1.wrQLenPdf::59                     0                       # What write queue length does an incoming req see (Count)
system.mem_ctrls1.wrQLenPdf::60                     0                       # What write queue length does an incoming req see (Count)
system.mem_ctrls1.wrQLenPdf::61                     0                       # What write queue length does an incoming req see (Count)
system.mem_ctrls1.wrQLenPdf::62                     0                       # What write queue length does an incoming req see (Count)
system.mem_ctrls1.wrQLenPdf::63                     0                       # What write queue length does an incoming req see (Count)
system.mem_ctrls1.bytesReadWrQ                      0                       # Total number of bytes read from write queue (Byte)
system.mem_ctrls1.bytesReadSys                      0                       # Total read bytes from the system interface side (Byte)
system.mem_ctrls1.bytesWrittenSys                   0                       # Total written bytes from the system interface side (Byte)
system.mem_ctrls1.avgRdBWSys               0.00000000                       # Average system read bandwidth in Byte/s ((Byte/Second))
system.mem_ctrls1.avgWrBWSys               0.00000000                       # Average system write bandwidth in Byte/s ((Byte/Second))
system.mem_ctrls1.totGap                            0                       # Total gap between requests (Tick)
system.mem_ctrls1.avgGap                          nan                       # Average gap between requests ((Tick/Count))
system.mem_ctrls1.dram.readBursts                   0                       # Number of DRAM read bursts (Count)
system.mem_ctrls1.dram.writeBursts                  0                       # Number of DRAM write bursts (Count)
system.mem_ctrls1.dram.perBankRdBursts::0            0                       # Per bank write bursts (Count)
system.mem_ctrls1.dram.perBankRdBursts::1            0                       # Per bank write bursts (Count)
system.mem_ctrls1.dram.perBankRdBursts::2            0                       # Per bank write bursts (Count)
system.mem_ctrls1.dram.perBankRdBursts::3            0                       # Per bank write bursts (Count)
system.mem_ctrls1.dram.perBankRdBursts::4            0                       # Per bank write bursts (Count)
system.mem_ctrls1.dram.perBankRdBursts::5            0                       # Per bank write bursts (Count)
system.mem_ctrls1.dram.perBankRdBursts::6            0                       # Per bank write bursts (Count)
system.mem_ctrls1.dram.perBankRdBursts::7            0                       # Per bank write bursts (Count)
system.mem_ctrls1.dram.perBankRdBursts::8            0                       # Per bank write bursts (Count)
system.mem_ctrls1.dram.perBankRdBursts::9            0                       # Per bank write bursts (Count)
system.mem_ctrls1.dram.perBankRdBursts::10            0                       # Per bank write bursts (Count)
system.mem_ctrls1.dram.perBankRdBursts::11            0                       # Per bank write bursts (Count)
system.mem_ctrls1.dram.perBankRdBursts::12            0                       # Per bank write bursts (Count)
system.mem_ctrls1.dram.perBankRdBursts::13            0                       # Per bank write bursts (Count)
system.mem_ctrls1.dram.perBankRdBursts::14            0                       # Per bank write bursts (Count)
system.mem_ctrls1.dram.perBankRdBursts::15            0                       # Per bank write bursts (Count)
system.mem_ctrls1.dram.perBankWrBursts::0            0                       # Per bank write bursts (Count)
system.mem_ctrls1.dram.perBankWrBursts::1            0                       # Per bank write bursts (Count)
system.mem_ctrls1.dram.perBankWrBursts::2            0                       # Per bank write bursts (Count)
system.mem_ctrls1.dram.perBankWrBursts::3            0                       # Per bank write bursts (Count)
system.mem_ctrls1.dram.perBankWrBursts::4            0                       # Per bank write bursts (Count)
system.mem_ctrls1.dram.perBankWrBursts::5            0                       # Per bank write bursts (Count)
system.mem_ctrls1.dram.perBankWrBursts::6            0                       # Per bank write bursts (Count)
system.mem_ctrls1.dram.perBankWrBursts::7            0                       # Per bank write bursts (Count)
system.mem_ctrls1.dram.perBankWrBursts::8            0                       # Per bank write bursts (Count)
system.mem_ctrls1.dram.perBankWrBursts::9            0                       # Per bank write bursts (Count)
system.mem_ctrls1.dram.perBankWrBursts::10            0                       # Per bank write bursts (Count)
system.mem_ctrls1.dram.perBankWrBursts::11            0                       # Per bank write bursts (Count)
system.mem_ctrls1.dram.perBankWrBursts::12            0                       # Per bank write bursts (Count)
system.mem_ctrls1.dram.perBankWrBursts::13            0                       # Per bank write bursts (Count)
system.mem_ctrls1.dram.perBankWrBursts::14            0                       # Per bank write bursts (Count)
system.mem_ctrls1.dram.perBankWrBursts::15            0                       # Per bank write bursts (Count)
system.mem_ctrls1.dram.totQLat                      0                       # Total ticks spent queuing (Tick)
system.mem_ctrls1.dram.totBusLat                    0                       # Total ticks spent in databus transfers (Tick)
system.mem_ctrls1.dram.totMemAccLat                 0                       # Total ticks spent from burst creation until serviced by the DRAM (Tick)
system.mem_ctrls1.dram.avgQLat                    nan                       # Average queueing delay per DRAM burst ((Tick/Count))
system.mem_ctrls1.dram.avgBusLat                  nan                       # Average bus latency per DRAM burst ((Tick/Count))
system.mem_ctrls1.dram.avgMemAccLat               nan                       # Average memory access latency per DRAM burst ((Tick/Count))
system.mem_ctrls1.dram.readRowHits                  0                       # Number of row buffer hits during reads (Count)
system.mem_ctrls1.dram.writeRowHits                 0                       # Number of row buffer hits during writes (Count)
system.mem_ctrls1.dram.readRowHitRate             nan                       # Row buffer hit rate for reads (Ratio)
system.mem_ctrls1.dram.writeRowHitRate            nan                       # Row buffer hit rate for writes (Ratio)
system.mem_ctrls1.dram.bytesRead                    0                       # Total number of bytes read from DRAM (Byte)
system.mem_ctrls1.dram.bytesWritten                 0                       # Total number of bytes written to DRAM (Byte)
system.mem_ctrls1.dram.avgRdBW                      0                       # Average DRAM read bandwidth in MiBytes/s ((Byte/Second))
system.mem_ctrls1.dram.avgWrBW                      0                       # Average DRAM write bandwidth in MiBytes/s ((Byte/Second))
system.mem_ctrls1.dram.peakBW                12800.00                       # Theoretical peak bandwidth in MiByte/s ((Byte/Second))
system.mem_ctrls1.dram.busUtil                   0.00                       # Data bus utilization in percentage (Ratio)
system.mem_ctrls1.dram.busUtilRead               0.00                       # Data bus utilization in percentage for reads (Ratio)
system.mem_ctrls1.dram.busUtilWrite              0.00                       # Data bus utilization in percentage for writes (Ratio)
system.mem_ctrls1.dram.pageHitRate                nan                       # Row buffer hit rate, read and write combined (Ratio)
system.mem_ctrls1.dram.power_state.pwrStateResidencyTicks::UNDEFINED        10000                       # Cumulative time (in ticks) in various power states (Tick)
system.mem_ctrls1.dram.power_state.pwrStateResidencyTicks::ON        10000                       # Cumulative time (in ticks) in various power states (Tick)
system.mem_ctrls1.dram.power_state.pwrStateResidencyTicks::CLK_GATED        10000                       # Cumulative time (in ticks) in various power states (Tick)
system.mem_ctrls1.dram.power_state.pwrStateResidencyTicks::SRAM_RETENTION        10000                       # Cumulative time (in ticks) in various power states (Tick)
system.mem_ctrls1.dram.power_state.pwrStateResidencyTicks::OFF        10000                       # Cumulative time (in ticks) in various power states (Tick)
system.mem_ctrls1.dram.rank0.actEnergy              0                       # Energy for activate commands per rank (pJ) (Joule)
system.mem_ctrls1.dram.rank0.preEnergy              0                       # Energy for precharge commands per rank (pJ) (Joule)
system.mem_ctrls1.dram.rank0.readEnergy             0                       # Energy for read commands per rank (pJ) (Joule)
system.mem_ctrls1.dram.rank0.writeEnergy            0                       # Energy for write commands per rank (pJ) (Joule)
system.mem_ctrls1.dram.rank0.refreshEnergy            0                       # Energy for refresh commands per rank (pJ) (Joule)
system.mem_ctrls1.dram.rank0.actBackEnergy            0                       # Energy for active background per rank (pJ) (Joule)
system.mem_ctrls1.dram.rank0.preBackEnergy         3840                       # Energy for precharge background per rank (pJ) (Joule)
system.mem_ctrls1.dram.rank0.actPowerDownEnergy            0                       # Energy for active power-down per rank (pJ) (Joule)
system.mem_ctrls1.dram.rank0.prePowerDownEnergy            0                       # Energy for precharge power-down per rank (pJ) (Joule)
system.mem_ctrls1.dram.rank0.selfRefreshEnergy            0                       # Energy for self refresh per rank (pJ) (Joule)
system.mem_ctrls1.dram.rank0.totalEnergy         3840                       # Total energy per rank (pJ) (Joule)
system.mem_ctrls1.dram.rank0.averagePower          384                       # Core power per rank (mW) (Watt)
system.mem_ctrls1.dram.rank0.totalIdleTime            0                       # Total Idle time Per DRAM Rank (Tick)
system.mem_ctrls1.dram.rank0.pwrStateTime::IDLE        10000                       # Time in different power states (Tick)
system.mem_ctrls1.dram.rank0.pwrStateTime::REF        10000                       # Time in different power states (Tick)
system.mem_ctrls1.dram.rank0.pwrStateTime::SREF        10000                       # Time in different power states (Tick)
system.mem_ctrls1.dram.rank0.pwrStateTime::PRE_PDN        10000                       # Time in different power states (Tick)
system.mem_ctrls1.dram.rank0.pwrStateTime::ACT        10000                       # Time in different power states (Tick)
system.mem_ctrls1.dram.rank0.pwrStateTime::ACT_PDN        10000                       # Time in different power states (Tick)
system.mem_ctrls1.dram.rank1.actEnergy              0                       # Energy for activate commands per rank (pJ) (Joule)
system.mem_ctrls1.dram.rank1.preEnergy              0                       # Energy for precharge commands per rank (pJ) (Joule)
system.mem_ctrls1.dram.rank1.readEnergy             0                       # Energy for read commands per rank (pJ) (Joule)
system.mem_ctrls1.dram.rank1.writeEnergy            0                       # Energy for write commands per rank (pJ) (Joule)
system.mem_ctrls1.dram.rank1.refreshEnergy            0                       # Energy for refresh commands per rank (pJ) (Joule)
system.mem_ctrls1.dram.rank1.actBackEnergy            0                       # Energy for active background per rank (pJ) (Joule)
system.mem_ctrls1.dram.rank1.preBackEnergy         3840                       # Energy for precharge background per rank (pJ) (Joule)
system.mem_ctrls1.dram.rank1.actPowerDownEnergy            0                       # Energy for active power-down per rank (pJ) (Joule)
system.mem_ctrls1.dram.rank1.prePowerDownEnergy            0                       # Energy for precharge power-down per rank (pJ) (Joule)
system.mem_ctrls1.dram.rank1.selfRefreshEnergy            0                       # Energy for self refresh per rank (pJ) (Joule)
system.mem_ctrls1.dram.rank1.totalEnergy         3840                       # Total energy per rank (pJ) (Joule)
system.mem_ctrls1.dram.rank1.averagePower          384                       # Core power per rank (mW) (Watt)
system.mem_ctrls1.dram.rank1.totalIdleTime            0                       # Total Idle time Per DRAM Rank (Tick)
system.mem_ctrls1.dram.rank1.pwrStateTime::IDLE        10000                       # Time in different power states (Tick)
system.mem_ctrls1.dram.rank1.pwrStateTime::REF        10000                       # Time in different power states (Tick)
system.mem_ctrls1.dram.rank1.pwrStateTime::SREF        10000                       # Time in different power states (Tick)
system.mem_ctrls1.dram.rank1.pwrStateTime::PRE_PDN        10000                       # Time in different power states (Tick)
system.mem_ctrls1.dram.rank1.pwrStateTime::ACT        10000                       # Time in different power states (Tick)
system.mem_ctrls1.dram.rank1.pwrStateTime::ACT_PDN        10000                       # Time in different power states (Tick)
system.mem_ctrls1.power_state.pwrStateResidencyTicks::UNDEFINED        10000                       # Cumulative time (in ticks) in various power states (Tick)
system.mem_ctrls1.power_state.pwrStateResidencyTicks::ON        10000                       # Cumulative time (in ticks) in various power states (Tick)
system.mem_ctrls1.power_state.pwrStateResidencyTicks::CLK_GATED        10000                       # Cumulative time (in ticks) in various power states (Tick)
system.mem_ctrls1.power_state.pwrStateResidencyTicks::SRAM_RETENTION        10000                       # Cumulative time (in ticks) in various power states (Tick)
system.mem_ctrls1.power_state.pwrStateResidencyTicks::OFF        10000                       # Cumulative time (in ticks) in various power states (Tick)
system.mem_ctrls10.priorityMinLatency    0.000000000000                       # per QoS priority minimum request to response latency (Second)
system.mem_ctrls10.priorityMaxLatency    0.000000000000                       # per QoS priority maximum request to response latency (Second)
system.mem_ctrls10.numReadWriteTurnArounds            0                       # Number of turnarounds from READ to WRITE (Count)
system.mem_ctrls10.numWriteReadTurnArounds            0                       # Number of turnarounds from WRITE to READ (Count)
system.mem_ctrls10.numStayReadState                 0                       # Number of times bus staying in READ state (Count)
system.mem_ctrls10.numStayWriteState                0                       # Number of times bus staying in WRITE state (Count)
system.mem_ctrls10.readReqs                         0                       # Number of read requests accepted (Count)
system.mem_ctrls10.writeReqs                        0                       # Number of write requests accepted (Count)
system.mem_ctrls10.readBursts                       0                       # Number of controller read bursts, including those serviced by the write queue (Count)
system.mem_ctrls10.writeBursts                      0                       # Number of controller write bursts, including those merged in the write queue (Count)
system.mem_ctrls10.servicedByWrQ                    0                       # Number of controller read bursts serviced by the write queue (Count)
system.mem_ctrls10.mergedWrBursts                   0                       # Number of controller write bursts merged with an existing one (Count)
system.mem_ctrls10.neitherReadNorWriteReqs            0                       # Number of requests that are neither read nor write (Count)
system.mem_ctrls10.avgRdQLen                     0.00                       # Average read queue length when enqueuing ((Count/Tick))
system.mem_ctrls10.avgWrQLen                     0.00                       # Average write queue length when enqueuing ((Count/Tick))
system.mem_ctrls10.numRdRetry                       0                       # Number of times read queue was full causing retry (Count)
system.mem_ctrls10.numWrRetry                       0                       # Number of times write queue was full causing retry (Count)
system.mem_ctrls10.readPktSize::0                   0                       # Read request sizes (log2) (Count)
system.mem_ctrls10.readPktSize::1                   0                       # Read request sizes (log2) (Count)
system.mem_ctrls10.readPktSize::2                   0                       # Read request sizes (log2) (Count)
system.mem_ctrls10.readPktSize::3                   0                       # Read request sizes (log2) (Count)
system.mem_ctrls10.readPktSize::4                   0                       # Read request sizes (log2) (Count)
system.mem_ctrls10.readPktSize::5                   0                       # Read request sizes (log2) (Count)
system.mem_ctrls10.readPktSize::6                   0                       # Read request sizes (log2) (Count)
system.mem_ctrls10.writePktSize::0                  0                       # Write request sizes (log2) (Count)
system.mem_ctrls10.writePktSize::1                  0                       # Write request sizes (log2) (Count)
system.mem_ctrls10.writePktSize::2                  0                       # Write request sizes (log2) (Count)
system.mem_ctrls10.writePktSize::3                  0                       # Write request sizes (log2) (Count)
system.mem_ctrls10.writePktSize::4                  0                       # Write request sizes (log2) (Count)
system.mem_ctrls10.writePktSize::5                  0                       # Write request sizes (log2) (Count)
system.mem_ctrls10.writePktSize::6                  0                       # Write request sizes (log2) (Count)
system.mem_ctrls10.rdQLenPdf::0                     0                       # What read queue length does an incoming req see (Count)
system.mem_ctrls10.rdQLenPdf::1                     0                       # What read queue length does an incoming req see (Count)
system.mem_ctrls10.rdQLenPdf::2                     0                       # What read queue length does an incoming req see (Count)
system.mem_ctrls10.rdQLenPdf::3                     0                       # What read queue length does an incoming req see (Count)
system.mem_ctrls10.rdQLenPdf::4                     0                       # What read queue length does an incoming req see (Count)
system.mem_ctrls10.rdQLenPdf::5                     0                       # What read queue length does an incoming req see (Count)
system.mem_ctrls10.rdQLenPdf::6                     0                       # What read queue length does an incoming req see (Count)
system.mem_ctrls10.rdQLenPdf::7                     0                       # What read queue length does an incoming req see (Count)
system.mem_ctrls10.rdQLenPdf::8                     0                       # What read queue length does an incoming req see (Count)
system.mem_ctrls10.rdQLenPdf::9                     0                       # What read queue length does an incoming req see (Count)
system.mem_ctrls10.rdQLenPdf::10                    0                       # What read queue length does an incoming req see (Count)
system.mem_ctrls10.rdQLenPdf::11                    0                       # What read queue length does an incoming req see (Count)
system.mem_ctrls10.rdQLenPdf::12                    0                       # What read queue length does an incoming req see (Count)
system.mem_ctrls10.rdQLenPdf::13                    0                       # What read queue length does an incoming req see (Count)
system.mem_ctrls10.rdQLenPdf::14                    0                       # What read queue length does an incoming req see (Count)
system.mem_ctrls10.rdQLenPdf::15                    0                       # What read queue length does an incoming req see (Count)
system.mem_ctrls10.rdQLenPdf::16                    0                       # What read queue length does an incoming req see (Count)
[...]
system.ruby.network.routers10.throttle00.link_utilization            0                       (Unspecified)
system.ruby.network.routers10.throttle01.link_utilization            0                       (Unspecified)
system.ruby.network.routers10.throttle02.link_utilization            0                       (Unspecified)
system.ruby.network.routers10.throttle03.link_utilization            0                       (Unspecified)
system.ruby.network.routers11.percent_links_utilized            0                       (Unspecified)
system.ruby.network.routers11.power_state.pwrStateResidencyTicks::UNDEFINED        10000                       # Cumulative time (in ticks) in various power states (Tick)
system.ruby.network.routers11.power_state.pwrStateResidencyTicks::ON        10000                       # Cumulative time (in ticks) in various power states (Tick)
system.ruby.network.routers11.power_state.pwrStateResidencyTicks::CLK_GATED        10000                       # Cumulative time (in ticks) in various power states (Tick)
system.ruby.network.routers11.power_state.pwrStateResidencyTicks::SRAM_RETENTION        10000                       # Cumulative time (in ticks) in various power states (Tick)
system.ruby.network.routers11.power_state.pwrStateResidencyTicks::OFF        10000                       # Cumulative time (in ticks) in various power states (Tick)
system.ruby.network.routers11.throttle00.link_utilization            0                       (Unspecified)
system.ruby.network.routers11.throttle01.link_utilization            0                       (Unspecified)
system.ruby.network.routers11.throttle02.link_utilization            0                       (Unspecified)
system.ruby.network.routers11.throttle03.link_utilization            0                       (Unspecified)
system.ruby.network.routers12.percent_links_utilized            0                       (Unspecified)
system.ruby.network.routers12.power_state.pwrStateResidencyTicks::UNDEFINED        10000                       # Cumulative time (in ticks) in various power states (Tick)
system.ruby.network.routers12.power_state.pwrStateResidencyTicks::ON        10000                       # Cumulative time (in ticks) in various power states (Tick)
system.ruby.network.routers12.power_state.pwrStateResidencyTicks::CLK_GATED        10000                       # Cumulative time (in ticks) in various power states (Tick)
system.ruby.network.routers12.power_state.pwrStateResidencyTicks::SRAM_RETENTION        10000                       # Cumulative time (in ticks) in various power states (Tick)
system.ruby.network.routers12.power_state.pwrStateResidencyTicks::OFF        10000                       # Cumulative time (in ticks) in various power states (Tick)
system.ruby.network.routers12.throttle00.link_utilization            0                       (Unspecified)
system.ruby.network.routers12.throttle01.link_utilization            0                       (Unspecified)
system.ruby.network.routers12.throttle02.link_utilization            0                       (Unspecified)
system.ruby.network.routers12.throttle03.link_utilization            0                       (Unspecified)
system.ruby.network.routers13.percent_links_utilized            0                       (Unspecified)
system.ruby.network.routers13.power_state.pwrStateResidencyTicks::UNDEFINED        10000                       # Cumulative time (in ticks) in various power states (Tick)
system.ruby.network.routers13.power_state.pwrStateResidencyTicks::ON        10000                       # Cumulative time (in ticks) in various power states (Tick)
system.ruby.network.routers13.power_state.pwrStateResidencyTicks::CLK_GATED        10000                       # Cumulative time (in ticks) in various power states (Tick)
system.ruby.network.routers13.power_state.pwrStateResidencyTicks::SRAM_RETENTION        10000                       # Cumulative time (in ticks) in various power states (Tick)
system.ruby.network.routers13.power_state.pwrStateResidencyTicks::OFF        10000                       # Cumulative time (in ticks) in various power states (Tick)
system.ruby.network.routers13.throttle00.link_utilization            0                       (Unspecified)
system.ruby.network.routers13.throttle01.link_utilization            0                       (Unspecified)
system.ruby.network.routers13.throttle02.link_utilization            0                       (Unspecified)
system.ruby.network.routers13.throttle03.link_utilization            0                       (Unspecified)
system.ruby.network.routers14.percent_links_utilized            0                       (Unspecified)
system.ruby.network.routers14.power_state.pwrStateResidencyTicks::UNDEFINED        10000                       # Cumulative time (in ticks) in various power states (Tick)
system.ruby.network.routers14.power_state.pwrStateResidencyTicks::ON        10000                       # Cumulative time (in ticks) in various power states (Tick)
system.ruby.network.routers14.power_state.pwrStateResidencyTicks::CLK_GATED        10000                       # Cumulative time (in ticks) in various power states (Tick)
system.ruby.network.routers14.power_state.pwrStateResidencyTicks::SRAM_RETENTION        10000                       # Cumulative time (in ticks) in various power states (Tick)
system.ruby.network.routers14.power_state.pwrStateResidencyTicks::OFF        10000                       # Cumulative time (in ticks) in various power states (Tick)
system.ruby.network.routers14.throttle00.link_utilization            0                       (Unspecified)
system.ruby.network.routers14.throttle01.link_utilization            0                       (Unspecified)
system.ruby.network.routers14.throttle02.link_utilization            0                       (Unspecified)
system.ruby.network.routers14.throttle03.link_utilization            0                       (Unspecified)
system.ruby.network.routers15.percent_links_utilized            0                       (Unspecified)
system.ruby.network.routers15.power_state.pwrStateResidencyTicks::UNDEFINED        10000                       # Cumulative time (in ticks) in various power states (Tick)
system.ruby.network.routers15.power_state.pwrStateResidencyTicks::ON        10000                       # Cumulative time (in ticks) in various power states (Tick)
system.ruby.network.routers15.power_state.pwrStateResidencyTicks::CLK_GATED        10000                       # Cumulative time (in ticks) in various power states (Tick)
system.ruby.network.routers15.power_state.pwrStateResidencyTicks::SRAM_RETENTION        10000                       # Cumulative time (in ticks) in various power states (Tick)
system.ruby.network.routers15.power_state.pwrStateResidencyTicks::OFF        10000                       # Cumulative time (in ticks) in various power states (Tick)
system.ruby.network.routers15.throttle00.link_utilization            0                       (Unspecified)
system.ruby.network.routers15.throttle01.link_utilization            0                       (Unspecified)
system.ruby.network.routers15.throttle02.link_utilization            0                       (Unspecified)
system.ruby.network.routers2.percent_links_utilized            0                       (Unspecified)
system.ruby.network.routers2.power_state.pwrStateResidencyTicks::UNDEFINED        10000                       # Cumulative time (in ticks) in various power states (Tick)
system.ruby.network.routers2.power_state.pwrStateResidencyTicks::ON        10000                       # Cumulative time (in ticks) in various power states (Tick)
system.ruby.network.routers2.power_state.pwrStateResidencyTicks::CLK_GATED        10000                       # Cumulative time (in ticks) in various power states (Tick)
system.ruby.network.routers2.power_state.pwrStateResidencyTicks::SRAM_RETENTION        10000                       # Cumulative time (in ticks) in various power states (Tick)
system.ruby.network.routers2.power_state.pwrStateResidencyTicks::OFF        10000                       # Cumulative time (in ticks) in various power states (Tick)
system.ruby.network.routers2.throttle00.link_utilization            0                       (Unspecified)
system.ruby.network.routers2.throttle01.link_utilization            0                       (Unspecified)
system.ruby.network.routers2.throttle02.link_utilization            0                       (Unspecified)
system.ruby.network.routers2.throttle03.link_utilization            0                       (Unspecified)
system.ruby.network.routers3.percent_links_utilized            0                       (Unspecified)
system.ruby.network.routers3.power_state.pwrStateResidencyTicks::UNDEFINED        10000                       # Cumulative time (in ticks) in various power states (Tick)
system.ruby.network.routers3.power_state.pwrStateResidencyTicks::ON        10000                       # Cumulative time (in ticks) in various power states (Tick)
system.ruby.network.routers3.power_state.pwrStateResidencyTicks::CLK_GATED        10000                       # Cumulative time (in ticks) in various power states (Tick)
system.ruby.network.routers3.power_state.pwrStateResidencyTicks::SRAM_RETENTION        10000                       # Cumulative time (in ticks) in various power states (Tick)
system.ruby.network.routers3.power_state.pwrStateResidencyTicks::OFF        10000                       # Cumulative time (in ticks) in various power states (Tick)
system.ruby.network.routers3.throttle00.link_utilization            0                       (Unspecified)
system.ruby.network.routers3.throttle01.link_utilization            0                       (Unspecified)
system.ruby.network.routers3.throttle02.link_utilization            0                       (Unspecified)
system.ruby.network.routers3.throttle03.link_utilization            0                       (Unspecified)
system.ruby.network.routers4.percent_links_utilized            0                       (Unspecified)
system.ruby.network.routers4.power_state.pwrStateResidencyTicks::UNDEFINED        10000                       # Cumulative time (in ticks) in various power states (Tick)
system.ruby.network.routers4.power_state.pwrStateResidencyTicks::ON        10000                       # Cumulative time (in ticks) in various power states (Tick)
system.ruby.network.routers4.power_state.pwrStateResidencyTicks::CLK_GATED        10000                       # Cumulative time (in ticks) in various power states (Tick)
system.ruby.network.routers4.power_state.pwrStateResidencyTicks::SRAM_RETENTION        10000                       # Cumulative time (in ticks) in various power states (Tick)
system.ruby.network.routers4.power_state.pwrStateResidencyTicks::OFF        10000                       # Cumulative time (in ticks) in various power states (Tick)
system.ruby.network.routers4.throttle00.link_utilization            0                       (Unspecified)
system.ruby.network.routers4.throttle01.link_utilization            0                       (Unspecified)
system.ruby.network.routers4.throttle02.link_utilization            0                       (Unspecified)
system.ruby.network.routers4.throttle03.link_utilization            0                       (Unspecified)
system.ruby.network.routers5.percent_links_utilized            0                       (Unspecified)
system.ruby.network.routers5.power_state.pwrStateResidencyTicks::UNDEFINED        10000                       # Cumulative time (in ticks) in various power states (Tick)
system.ruby.network.routers5.power_state.pwrStateResidencyTicks::ON        10000                       # Cumulative time (in ticks) in various power states (Tick)
system.ruby.network.routers5.power_state.pwrStateResidencyTicks::CLK_GATED        10000                       # Cumulative time (in ticks) in various power states (Tick)
system.ruby.network.routers5.power_state.pwrStateResidencyTicks::SRAM_RETENTION        10000                       # Cumulative time (in ticks) in various power states (Tick)
system.ruby.network.routers5.power_state.pwrStateResidencyTicks::OFF        10000                       # Cumulative time (in ticks) in various power states (Tick)
system.ruby.network.routers5.throttle00.link_utilization            0                       (Unspecified)
system.ruby.network.routers5.throttle01.link_utilization            0                       (Unspecified)
system.ruby.network.routers5.throttle02.link_utilization            0                       (Unspecified)
system.ruby.network.routers5.throttle03.link_utilization            0                       (Unspecified)
system.ruby.network.routers6.percent_links_utilized            0                       (Unspecified)
system.ruby.network.routers6.power_state.pwrStateResidencyTicks::UNDEFINED        10000                       # Cumulative time (in ticks) in various power states (Tick)
system.ruby.network.routers6.power_state.pwrStateResidencyTicks::ON        10000                       # Cumulative time (in ticks) in various power states (Tick)
system.ruby.network.routers6.power_state.pwrStateResidencyTicks::CLK_GATED        10000                       # Cumulative time (in ticks) in various power states (Tick)
system.ruby.network.routers6.power_state.pwrStateResidencyTicks::SRAM_RETENTION        10000                       # Cumulative time (in ticks) in various power states (Tick)
system.ruby.network.routers6.power_state.pwrStateResidencyTicks::OFF        10000                       # Cumulative time (in ticks) in various power states (Tick)
system.ruby.network.routers6.throttle00.link_utilization            0                       (Unspecified)
system.ruby.network.routers6.throttle01.link_utilization            0                       (Unspecified)
system.ruby.network.routers6.throttle02.link_utilization            0                       (Unspecified)
system.ruby.network.routers6.throttle03.link_utilization            0                       (Unspecified)
system.ruby.network.routers7.percent_links_utilized            0                       (Unspecified)
system.ruby.network.routers7.power_state.pwrStateResidencyTicks::UNDEFINED        10000                       # Cumulative time (in ticks) in various power states (Tick)
system.ruby.network.routers7.power_state.pwrStateResidencyTicks::ON        10000                       # Cumulative time (in ticks) in various power states (Tick)
system.ruby.network.routers7.power_state.pwrStateResidencyTicks::CLK_GATED        10000                       # Cumulative time (in ticks) in various power states (Tick)
system.ruby.network.routers7.power_state.pwrStateResidencyTicks::SRAM_RETENTION        10000                       # Cumulative time (in ticks) in various power states (Tick)
system.ruby.network.routers7.power_state.pwrStateResidencyTicks::OFF        10000                       # Cumulative time (in ticks) in various power states (Tick)
system.ruby.network.routers7.throttle00.link_utilization            0                       (Unspecified)
system.ruby.network.routers7.throttle01.link_utilization            0                       (Unspecified)
system.ruby.network.routers7.throttle02.link_utilization            0                       (Unspecified)
system.ruby.network.routers7.throttle03.link_utilization            0                       (Unspecified)
system.ruby.network.routers8.percent_links_utilized            0                       (Unspecified)
system.ruby.network.routers8.power_state.pwrStateResidencyTicks::UNDEFINED        10000                       # Cumulative time (in ticks) in various power states (Tick)
system.ruby.network.routers8.power_state.pwrStateResidencyTicks::ON        10000                       # Cumulative time (in ticks) in various power states (Tick)
system.ruby.network.routers8.power_state.pwrStateResidencyTicks::CLK_GATED        10000                       # Cumulative time (in ticks) in various power states (Tick)
system.ruby.network.routers8.power_state.pwrStateResidencyTicks::SRAM_RETENTION        10000                       # Cumulative time (in ticks) in various power states (Tick)
system.ruby.network.routers8.power_state.pwrStateResidencyTicks::OFF        10000                       # Cumulative time (in ticks) in various power states (Tick)
system.ruby.network.routers8.throttle00.link_utilization            0                       (Unspecified)
system.ruby.network.routers8.throttle01.link_utilization            0                       (Unspecified)
system.ruby.network.routers8.throttle02.link_utilization            0                       (Unspecified)
system.ruby.network.routers8.throttle03.link_utilization            0                       (Unspecified)
system.ruby.network.routers9.percent_links_utilized            0                       (Unspecified)
system.ruby.network.routers9.power_state.pwrStateResidencyTicks::UNDEFINED        10000                       # Cumulative time (in ticks) in various power states (Tick)
system.ruby.network.routers9.power_state.pwrStateResidencyTicks::ON        10000                       # Cumulative time (in ticks) in various power states (Tick)
system.ruby.network.routers9.power_state.pwrStateResidencyTicks::CLK_GATED        10000                       # Cumulative time (in ticks) in various power states (Tick)
system.ruby.network.routers9.power_state.pwrStateResidencyTicks::SRAM_RETENTION        10000                       # Cumulative time (in ticks) in various power states (Tick)
system.ruby.network.routers9.power_state.pwrStateResidencyTicks::OFF        10000                       # Cumulative time (in ticks) in various power states (Tick)
system.ruby.network.routers9.throttle00.link_utilization            0                       (Unspecified)
system.ruby.network.routers9.throttle01.link_utilization            0                       (Unspecified)
system.ruby.network.routers9.throttle02.link_utilization            0                       (Unspecified)
system.ruby.network.routers9.throttle03.link_utilization            0                       (Unspecified)
system.ruby.power_state.pwrStateResidencyTicks::UNDEFINED        10000                       # Cumulative time (in ticks) in various power states (Tick)
system.ruby.power_state.pwrStateResidencyTicks::ON        10000                       # Cumulative time (in ticks) in various power states (Tick)
system.ruby.power_state.pwrStateResidencyTicks::CLK_GATED        10000                       # Cumulative time (in ticks) in various power states (Tick)
system.ruby.power_state.pwrStateResidencyTicks::SRAM_RETENTION        10000                       # Cumulative time (in ticks) in various power states (Tick)
system.ruby.power_state.pwrStateResidencyTicks::OFF        10000                       # Cumulative time (in ticks) in various power states (Tick)
system.sys_port_proxy.power_state.pwrStateResidencyTicks::UNDEFINED        10000                       # Cumulative time (in ticks) in various power states (Tick)
system.sys_port_proxy.power_state.pwrStateResidencyTicks::ON        10000                       # Cumulative time (in ticks) in various power states (Tick)
system.sys_port_proxy.power_state.pwrStateResidencyTicks::CLK_GATED        10000                       # Cumulative time (in ticks) in various power states (Tick)
system.sys_port_proxy.power_state.pwrStateResidencyTicks::SRAM_RETENTION        10000                       # Cumulative time (in ticks) in various power states (Tick)
system.sys_port_proxy.power_state.pwrStateResidencyTicks::OFF        10000                       # Cumulative time (in ticks) in various power states (Tick)
system.voltage_domain.voltage                       1                       # Voltage in Volts (Volt)

---------- End Simulation Statistics   ----------
